KIME_1203/KIME_1203.sxst_DSS/Elements/Lines.dss
New Line.256169741 Phases= 1 Bus1=256169733.3     Bus2=256169743.3     Length=74.06  units=m  Spacing=VERTICAL-1-PH-60-1PH wires=['2-ACSR-B-6X1' '2-ACSR-B-6X1']
New Line.261278237 Bus1=260359002.2     Bus2=261278239.2     LineCode=1/0-AL-TRXLPELCJ-15KV Phases= 1 Length=245.60 units=m enable=yes
New Line.915309248 Phases= 3 Bus1=915309245.1.2.3 Bus2=256165008.1.2.3 Length=60.18  units=m  Spacing=8'-ARM-STANDARD-3PH wires=['336-AAC-B-19' '336-AAC-B-19' '336-AAC-B-19' '1/0-ACSR-B-6X1']
New Line.262758422 Phases= 3 Bus1=262758419.1.2.3 Bus2=256168942.1.2.3 Length=59.28  units=m  Spacing=8'-ARM-STANDARD-3PH wires=['2-ACSR-B-6X1' '2-ACSR-B-6X1' '2-ACSR-B-6X1' '2-ACSR-B-6X1']
New Line.256156364 Phases= 3 Bus1=256156361.1.2.3 Bus2=256156366.1.2.3 Length=45.83  units=m  Spacing=8'-ARM-STANDARD-3PH wires=['1/0-ACSR-B-6X1' '1/0-ACSR-B-6X1' '1/0-ACSR-B-6X1' '1/0-ACSR-B-6X1']
New Line.264587769 Bus1=256155767.3     Bus2=264587771.3     LineCode=1/0-AL-HMWPECN-15KV Phases= 1 Length=1.53   units=m enable=yes
New Line.262758404 Bus1=262758401.3     Bus2=260360182.3     LineCode=1/0-AL-TRXLPELCJ-15KV Phases= 1 Length=123.40 units=m enable=yes
New Line.256160407 Phases= 1 Bus1=256160404.2     Bus2=256160409.2     Length=51.45  units=m  Spacing=VERTICAL-1-PH-60-1PH wires=['2-ACSR-B-6X1' '2-ACSR-B-6X1']
New Line.264411260 Phases= 3 Bus1=259219239.1.2.3 Bus2=264411262.1.2.3 Length=1.53   units=m  Spacing=DBL-CKT-10'-&amp;-8'-ARMS-3PH wires=['556-AAC-B-19' '556-AAC-B-19' '556-AAC-B-19' '556-AAC-B-19']
New Line.264619529 Bus1=256169558.2     Bus2=264619531.2     LineCode=1/0-AL-TRXLPELCJ-15KV Phases= 1 Length=1.52   units=m enable=yes
New Line.256169011 Phases= 3 Bus1=256169008.1.2.3 Bus2=256169013.1.2.3 Length=27.50  units=m  Spacing=8'-ARM-STANDARD-3PH wires=['1/0-ACSR-B-6X1' '1/0-ACSR-B-6X1' '1/0-ACSR-B-6X1' '2-ACSR-B-6X1']
New Line.264619520 Bus1=256169563.2     Bus2=264619522.2     LineCode=1/0-AL-TRXLPELCJ-15KV Phases= 1 Length=1.53   units=m enable=yes
New Line.256156941 Phases= 1 Bus1=256156938.3     Bus2=256156943.3     Length=98.55  units=m  Spacing=VERTICAL-1-PH-60-1PH wires=['2-ACSR-B-6X1' '2-ACSR-B-6X1']
New Line.255943498 Phases= 1 Bus1=255943495.1     Bus2=255943500.1     Length=112.40 units=m  Spacing=VERTICAL-1-PH-60-1PH wires=['2-ACSR-B-6X1' '2-ACSR-B-6X1']
New Line.255943745 Phases= 1 Bus1=255943742.1     Bus2=255943747.1     Length=80.60  units=m  Spacing=VERTICAL-1-PH-60-1PH wires=['2-ACSR-B-6X1' '2-ACSR-B-6X1']
New Line.915794373 Bus1=915794369.3     Bus2=915794350.3     LineCode=1/0-AL-TRXLPELCJ-25KV Phases= 1 Length=123.90 units=m enable=yes
New Line.262695352 Phases= 1 Bus1=255943418.1     Bus2=262695354.1     Length=1.53   units=m  Spacing=VERTICAL-1-PH-60-1PH wires=['2-ACSR-B-6X1' '2-ACSR-B-6X1']
New Line.700450485 Phases= 3 Bus1=256160964.1.2.3 Bus2=256160969.1.2.3 Length=35.84  units=m  Spacing=8'-ARM-STANDARD-3PH wires=['1/0-ACSR-B-6X1' '1/0-ACSR-B-6X1' '1/0-ACSR-B-6X1' '1/0-ACSR-B-6X1']
New Line.262757171 Phases= 1 Bus1=262757168.1     Bus2=256161158.1     Length=113.10 units=m  Spacing=VERTICAL-1-PH-60-1PH wires=['2-ACSR-B-6X1' '2-ACSR-B-6X1']
New Line.256169866 Phases= 1 Bus1=256169863.1     Bus2=256169868.1     Length=248.20 units=m  Spacing=NEUTRAL-ON-ARM-1PH wires=['2-ACSR-B-6X1' '2-ACSR-B-6X1']
New Line.261238455 Bus1=259474037.1     Bus2=261238457.1     LineCode=1/0-AL-TRXLPELCJ-15KV Phases= 1 Length=7.12   units=m enable=yes
New Line.262759692 Phases= 1 Bus1=256169493.3     Bus2=262759694.3     Length=1.52   units=m  Spacing=VERTICAL-1-PH-60-1PH wires=['2-ACSR-B-6X1' '2-ACSR-B-6X1']
New Line.255956361 Phases= 1 Bus1=255956358.1     Bus2=255956363.1     Length=102.50 units=m  Spacing=VERTICAL-1-PH-60-1PH wires=['2-ACSR-B-6X1' '2-ACSR-B-6X1']
New Line.256174237 Phases= 1 Bus1=256174234.2     Bus2=256174239.2     Length=195.50 units=m  Spacing=VERTICAL-1-PH-60-1PH wires=['2-ACSR-B-6X1' '2-ACSR-B-6X1']
New Line.256169681 Phases= 1 Bus1=256169678.3     Bus2=256169683.3     Length=45.37  units=m  Spacing=VERTICAL-1-PH-60-1PH wires=['2-ACSR-B-6X1' '2-ACSR-B-6X1']
New Line.264508575 Bus1=264508572.2     Bus2=260369651.2     LineCode=1/0-AL-HMWPECN-15KV Phases= 1 Length=122.20 units=m enable=yes
New Line.263781986 Bus1=256170034.1     Bus2=263781988.1     LineCode=1/0-AL-TRXLPELCJ-15KV Phases= 1 Length=1.52   units=m enable=yes
New Line.617434238 Bus1=261134605.3     Bus2=261134615.3     LineCode=1/0-AL-TRXLPELCJ-15KV Phases= 1 Length=182.60 units=m enable=yes
New Line.256170079 Phases= 1 Bus1=256170076.1     Bus2=256170081.1     Length=20.93  units=m  Spacing=VERTICAL-1-PH-60-1PH wires=['2-ACSR-B-6X1' '2-ACSR-B-6X1']
New Line.262755588 Phases= 1 Bus1=256155930.3     Bus2=262755590.3     Length=1.53   units=m  Spacing=VERTICAL-1-PH-60-1PH wires=['2-ACSR-B-6X1' '2-ACSR-B-6X1']
New Line.263922830 Phases= 1 Bus1=263922827.2     Bus2=256160732.2     Length=75.60  units=m  Spacing=VERTICAL-1-PH-60-1PH wires=['2-ACSR-B-6X1' '2-ACSR-B-6X1']
New Line.256164600 Phases= 1 Bus1=256164592.1     Bus2=256164602.1     Length=206.10 units=m  Spacing=VERTICAL-1-PH-60-1PH wires=['2-ACSR-B-6X1' '2-ACSR-B-6X1']
New Line.264219209 Bus1=260358992.3     Bus2=264219211.3     LineCode=1/0-AL-HMWPECN-15KV Phases= 1 Length=1.52   units=m enable=yes
New Line.262756968 Bus1=256160419.2     Bus2=262756970.2     LineCode=1/0-AL-HMWPECN-15KV Phases= 1 Length=1.52   units=m enable=yes
New Line.256161369 Phases= 3 Bus1=256161366.1.2.3 Bus2=256161371.1.2.3 Length=87.95  units=m  Spacing=8'-ARM-STANDARD-3PH wires=['2-ACSR-B-6X1' '2-ACSR-B-6X1' '2-ACSR-B-6X1' '2-ACSR-B-6X1']
New Line.256169597 Phases= 3 Bus1=256169592.1.2.3 Bus2=256169599.1.2.3 Length=29.40  units=m  Spacing=8'-ARM-STANDARD-3PH wires=['1/0-ACSR-B-6X1' '1/0-ACSR-B-6X1' '1/0-ACSR-B-6X1' '2-ACSR-B-6X1']
New Line.264219425 Bus1=264219427.3     Bus2=260361306.3     LineCode=1/0-AL-HMWPECN-15KV Phases= 1 Length=1.52   units=m enable=yes
New Line.255943690 Phases= 3 Bus1=255943687.1.2.3 Bus2=255943692.1.2.3 Length=146.30 units=m  Spacing=HORIZ-LINE-POST-3PH wires=['2-ACSR-B-6X1' '2-ACSR-B-6X1' '2-ACSR-B-6X1' '2-ACSR-B-6X1']
New Line.256160460 Phases= 1 Bus1=256160455.2     Bus2=256160462.2     Length=120.50 units=m  Spacing=VERTICAL-1-PH-60-1PH wires=['2-ACSR-B-6X1' '2-ACSR-B-6X1']
New Line.256164843 Phases= 3 Bus1=256164840.1.2.3 Bus2=256164845.1.2.3 Length=47.45  units=m  Spacing=HORIZ-LINE-POST-3PH wires=['336-AAC-B-19' '336-AAC-B-19' '336-AAC-B-19' '1/0-ACSR-B-6X1']
New Line.700450569 Phases= 3 Bus1=256161001.1.2.3 Bus2=256161006.1.2.3 Length=102.00 units=m  Spacing=8'-ARM-STANDARD-3PH wires=['1/0-ACSR-B-6X1' '1/0-ACSR-B-6X1' '1/0-ACSR-B-6X1' '1/0-ACSR-B-6X1']
New Line.256169201 Phases= 1 Bus1=256169166.1     Bus2=256169203.1     Length=66.96  units=m  Spacing=VERTICAL-1-PH-60-1PH wires=['1/0-ACSR-B-6X1' '1/0-ACSR-B-6X1']
New Line.460993795 Phases= 1 Bus1=460993791.3     Bus2=259497373.3     Length=26.93  units=m  Spacing=VERTICAL-1-PH-60-1PH wires=['2-ACSR-B-6X1' '2-ACSR-B-6X1']
New Line.256161532 Phases= 1 Bus1=256161524.3     Bus2=256161534.3     Length=30.75  units=m  Spacing=VERTICAL-1-PH-60-1PH wires=['2-ACSR-B-6X1' '2-ACSR-B-6X1']
New Line.256169970 Phases= 1 Bus1=256169967.1     Bus2=256169972.1     Length=175.10 units=m  Spacing=VERTICAL-1-PH-60-1PH wires=['2-ACSR-B-6X1' '2-ACSR-B-6X1']
New Line.263755327 Phases= 3 Bus1=259259667.1.2.3 Bus2=263755325.1.2.3 Length=29.96  units=m  Spacing=8'-ARM-STANDARD-3PH wires=['1/0-ACSR-B-6X1' '1/0-ACSR-B-6X1' '1/0-ACSR-B-6X1' '2-ACSR-B-6X1']
New Line.260887257 Bus1=260358020.1     Bus2=260887259.1     LineCode=1/0-AL-HMWPECN-15KV Phases= 1 Length=5.82   units=m enable=yes
New Line.256170010 Phases= 1 Bus1=256169957.1     Bus2=256170012.1     Length=18.75  units=m  Spacing=VERTICAL-1-PH-60-1PH wires=['2-ACSR-B-6X1' '2-ACSR-B-6X1']
New Line.256156860 Phases= 1 Bus1=256156813.3     Bus2=256156862.3     Length=19.12  units=m  Spacing=VERTICAL-1-PH-60-1PH wires=['2-ACSR-B-6X1' '2-ACSR-B-6X1']
New Line.259219271 Phases= 3 Bus1=256155674.1.2.3 Bus2=256155664.1.2.3 Length=83.89  units=m  Spacing=DBL-CKT-10'-&amp;-8'-ARMS-3PH wires=['336-AAC-B-19' '336-AAC-B-19' '336-AAC-B-19' '336-AAC-B-19']
New Line.262757067 Phases= 1 Bus1=256160835.1     Bus2=262757069.1     Length=1.52   units=m  Spacing=VERTICAL-1-PH-60-1PH wires=['2-ACSR-B-6X1' '2-ACSR-B-6X1']
New Line.260359035 Bus1=260359032.2     Bus2=260359037.2     LineCode=1/0-AL-TRXLPELCJ-15KV Phases= 1 Length=105.80 units=m enable=yes
New Line.264508570 Bus1=256155665.2     Bus2=264508572.2     LineCode=1/0-AL-HMWPECN-15KV Phases= 1 Length=1.51   units=m enable=yes
New Line.256164170 Phases= 1 Bus1=256164148.3     Bus2=256164172.3     Length=19.39  units=m  Spacing=VERTICAL-1-PH-60-1PH wires=['2-ACSR-B-6X1' '2-ACSR-B-6X1']
New Line.262759658 Phases= 1 Bus1=262759655.1     Bus2=256169295.1     Length=108.40 units=m  Spacing=VERTICAL-1-PH-60-1PH wires=['2-ACSR-B-6X1' '2-ACSR-B-6X1']
New Line.256156677 Phases= 1 Bus1=256156669.1     Bus2=256156679.1     Length=92.43  units=m  Spacing=VERTICAL-1-PH-60-1PH wires=['2-ACSR-B-6X1' '2-ACSR-B-6X1']
New Line.256164296 Phases= 1 Bus1=256164293.3     Bus2=256164298.3     Length=69.50  units=m  Spacing=VERTICAL-1-PH-60-1PH wires=['2-ACSR-B-6X1' '2-ACSR-B-6X1']
New Line.256169456 Phases= 3 Bus1=256169453.1.2.3 Bus2=256169458.1.2.3 Length=21.69  units=m  Spacing=8'-ARM-STANDARD-3PH wires=['1/0-ACSR-B-6X1' '1/0-ACSR-B-6X1' '1/0-ACSR-B-6X1' '2-ACSR-B-6X1']
New Line.255943996 Phases= 1 Bus1=255943993.1     Bus2=255943998.1     Length=56.41  units=m  Spacing=VERTICAL-1-PH-60-1PH wires=['2-ACSR-B-6X1' '2-ACSR-B-6X1']
New Line.255942995 Phases= 3 Bus1=255942997.1.2.3 Bus2=255942992.1.2.3 Length=41.37  units=m  Spacing=8'-ARM-STANDARD-3PH wires=['336-AAC-B-19' '336-AAC-B-19' '336-AAC-B-19' '1/0-ACSR-B-6X1']
New Line.256164199 Phases= 1 Bus1=256164191.3     Bus2=256164201.3     Length=260.00 units=m  Spacing=VERTICAL-1-PH-60-1PH wires=['1/0-ACSR-B-6X1' '1/0-ACSR-B-6X1']
New Line.263751326 Bus1=263751323.1     Bus2=261259861.1     LineCode=1/0-AL-TRXLPELCJ-15KV Phases= 1 Length=134.70 units=m enable=yes
New Line.256160911 Phases= 1 Bus1=256160908.1     Bus2=256160913.1     Length=82.02  units=m  Spacing=VERTICAL-1-PH-60-1PH wires=['2-ACSR-B-6X1' '2-ACSR-B-6X1']
New Line.261134623 Bus1=261134620.3     Bus2=260944116.3     LineCode=1/0-AL-TRXLPELCJ-15KV Phases= 1 Length=44.34  units=m enable=yes
New Line.256164833 Phases= 3 Bus1=256164830.1.2.3 Bus2=256164835.1.2.3 Length=89.47  units=m  Spacing=HORIZ-LINE-POST-3PH wires=['336-AAC-B-19' '336-AAC-B-19' '336-AAC-B-19' '1/0-ACSR-B-6X1']
New Line.256168994 Phases= 3 Bus1=256168991.1.2.3 Bus2=256168996.1.2.3 Length=31.05  units=m  Spacing=8'-ARM-STANDARD-3PH wires=['1/0-ACSR-B-6X1' '1/0-ACSR-B-6X1' '1/0-ACSR-B-6X1' '2-ACSR-B-6X1']
New Line.262755827 Bus1=262755824.1     Bus2=260358010.1     LineCode=1/0-AL-HMWPECN-15KV Phases= 1 Length=89.76  units=m enable=yes
New Line.617604514 Phases= 1 Bus1=617604516.1     Bus2=617604411.1     Length=105.00 units=m  Spacing=VERTICAL-1-PH-104-1PH wires=['DEFAULT' 'DEFAULT']
New Line.262755876 Bus1=256156334.2     Bus2=262755878.2     LineCode=1/0-AL-HMWPECN-15KV Phases= 1 Length=1.52   units=m enable=yes
New Line.617447684 Phases= 3 Bus1=256155857.1.2.3 Bus2=617447686.1.2.3 Length=1.54   units=m  Spacing=8'-ARM-STANDARD-3PH wires=['336-AAC-B-19' '336-AAC-B-19' '336-AAC-B-19' '1/0-ACSR-B-6X1']
New Line.872031053 Bus1=872030997.2     Bus2=872031051.2     LineCode=1/0-AL-TRXLPELCJ-25KV Phases= 1 Length=152.20 units=m enable=yes
New Line.620425258 Phases= 1 Bus1=700451235.3     Bus2=620425260.3     Length=1.51   units=m  Spacing=VERTICAL-1-PH-104-1PH wires=['2-ACSR-B-6X1' '2-ACSR-B-6X1']
New Line.264452914 Phases= 3 Bus1=256155974.1.2.3 Bus2=264452916.1.2.3 Length=1.52   units=m  Spacing=8'-ARM-STANDARD-3PH wires=['336-AAC-B-19' '336-AAC-B-19' '336-AAC-B-19' '1/0-ACSR-B-6X1']
New Line.262757265 Bus1=256161442.3     Bus2=262757267.3     LineCode=1/0-AL-HMWPECN-15KV Phases= 1 Length=1.52   units=m enable=yes
New Line.262759617 Phases= 1 Bus1=256169124.3     Bus2=262759619.3     Length=1.53   units=m  Spacing=VERTICAL-1-PH-60-1PH wires=['2-ACSR-B-6X1' '2-ACSR-B-6X1']
New Line.260361244 Bus1=260361241.1     Bus2=260361246.1     LineCode=1/0-AL-HMWPECN-15KV Phases= 1 Length=158.30 units=m enable=yes
New Line.262695312 Phases= 3 Bus1=262695309.1.2.3 Bus2=255943214.1.2.3 Length=65.73  units=m  Spacing=8'-ARM-NON-CENTER-POST-3PH wires=['2-ACSR-B-6X1' '2-ACSR-B-6X1' '2-ACSR-B-6X1' '2-ACSR-B-6X1']
New Line.262759631 Phases= 3 Bus1=262759628.1.2.3 Bus2=256169305.1.2.3 Length=102.80 units=m  Spacing=8'-ARM-STANDARD-3PH wires=['2-ACSR-B-6X1' '2-ACSR-B-6X1' '2-ACSR-B-6X1' '2-ACSR-B-6X1']
New Line.724174916 Phases= 1 Bus1=724174912.1     Bus2=256164585.1     Length=48.83  units=m  Spacing=VERTICAL-1-PH-60-1PH wires=['2-ACSR-B-6X1' '2-ACSR-B-6X1']
New Line.256165251 Phases= 1 Bus1=256165248.3     Bus2=256165253.3     Length=170.50 units=m  Spacing=NEUTRAL-ON-ARM-1PH wires=['2-ACSR-B-6X1' '2-ACSR-B-6X1']
New Line.256169561 Phases= 3 Bus1=256169562.1.2.3 Bus2=256169563.1.2.3 Length=23.55  units=m  Spacing=8'-ARM-STANDARD-3PH wires=['1/0-ACSR-B-6X1' '1/0-ACSR-B-6X1' '1/0-ACSR-B-6X1' '2-ACSR-B-6X1']
New Line.264619799 Phases= 3 Bus1=255942997.1.2.3 Bus2=264619801.1.2.3 Length=1.53   units=m  Spacing=8'-ARM-STANDARD-3PH wires=['2-ACSR-B-6X1' '2-ACSR-B-6X1' '2-ACSR-B-6X1' '2-ACSR-B-6X1']
New Line.256160872 Phases= 1 Bus1=256160867.1     Bus2=256160874.1     Length=182.10 units=m  Spacing=VERTICAL-1-PH-60-1PH wires=['2-ACSR-B-6X1' '2-ACSR-B-6X1']
New Line.262757189 Phases= 1 Bus1=262757186.1     Bus2=256161134.1     Length=115.80 units=m  Spacing=VERTICAL-1-PH-60-1PH wires=['2-ACSR-B-6X1' '2-ACSR-B-6X1']
New Line.262695388 Bus1=255943073.2     Bus2=262695390.2     LineCode=1/0-AL-HMWPECN-15KV Phases= 1 Length=1.53   units=m enable=yes
New Line.256160284 Phases= 1 Bus1=256157078.2     Bus2=256160286.2     Length=205.10 units=m  Spacing=NEUTRAL-ON-ARM-1PH wires=['2-ACSR-B-6X1' '2-ACSR-B-6X1']
New Line.256169436 Phases= 3 Bus1=256169433.1.2.3 Bus2=256169438.1.2.3 Length=62.80  units=m  Spacing=8'-ARM-STANDARD-3PH wires=['1/0-ACSR-B-6X1' '1/0-ACSR-B-6X1' '1/0-ACSR-B-6X1' '2-ACSR-B-6X1']
New Line.256156746 Phases= 1 Bus1=256156743.1     Bus2=256156748.1     Length=75.97  units=m  Spacing=VERTICAL-1-PH-60-1PH wires=['4-ACSR-B-6X1' '4-ACSR-B-6X1']
New Line.255943650 Phases= 3 Bus1=255943645.1.2.3 Bus2=255943652.1.2.3 Length=86.14  units=m  Spacing=HORIZ-LINE-POST-3PH wires=['2-ACSR-B-6X1' '2-ACSR-B-6X1' '2-ACSR-B-6X1' '2-ACSR-B-6X1']
New Line.255943971 Phases= 1 Bus1=255943968.1     Bus2=255943973.1     Length=76.62  units=m  Spacing=VERTICAL-1-PH-60-1PH wires=['2-ACSR-B-6X1' '2-ACSR-B-6X1']
New Line.627181863 Phases= 1 Bus1=256169487.3     Bus2=627181865.3     Length=1.51   units=m  Spacing=VERTICAL-1-PH-104-1PH wires=['2-ACSR-B-6X1' '2-ACSR-B-6X1']
New Line.256160560 Phases= 3 Bus1=256160527.1.2.3 Bus2=256160562.1.2.3 Length=34.72  units=m  Spacing=8'-ARM-STANDARD-3PH wires=['1/0-ACSR-B-6X1' '1/0-ACSR-B-6X1' '1/0-ACSR-B-6X1' '1/0-ACSR-B-6X1']
New Line.263626894 Bus1=259112064.1     Bus2=263626896.1     LineCode=1/0-AL-TRXLPELCJ-15KV Phases= 1 Length=1.52   units=m enable=yes
New Line.262774950 Phases= 1 Bus1=262774947.3     Bus2=256155767.3     Length=33.90  units=m  Spacing=VERTICAL-1-PH-60-1PH wires=['2-ACSR-B-6X1' '2-ACSR-B-6X1']
New Line.264452954 Phases= 3 Bus1=256156356.1.2.3 Bus2=264452952.1.2.3 Length=26.46  units=m  Spacing=HORIZ-LINE-POST-3PH wires=['1/0-ACSR-B-6X1' '2-ACSR-B-6X1' '2-ACSR-B-6X1' '2-ACSR-B-6X1']
New Line.255943926 Phases= 1 Bus1=255943918.1     Bus2=255943928.1     Length=62.89  units=m  Spacing=VERTICAL-1-PH-60-1PH wires=['2-ACSR-B-6X1' '2-ACSR-B-6X1']
New Line.255943217 Phases= 3 Bus1=255943214.1.2.3 Bus2=255943219.1.2.3 Length=85.52  units=m  Spacing=8'-ARM-NON-CENTER-POST-3PH wires=['2-ACSR-B-6X1' '2-ACSR-B-6X1' '2-ACSR-B-6X1' '2-ACSR-B-6X1']
New Line.256174284 Phases= 1 Bus1=256174281.2     Bus2=256174286.2     Length=7.47   units=m  Spacing=VERTICAL-1-PH-60-1PH wires=['2-ACSR-B-6X1' '2-ACSR-B-6X1']
New Line.256164907 Phases= 3 Bus1=256164904.1.2.3 Bus2=256164909.1.2.3 Length=80.10  units=m  Spacing=HORIZ-LINE-POST-3PH wires=['336-AAC-B-19' '336-AAC-B-19' '336-AAC-B-19' '1/0-ACSR-B-6X1']
New Line.255943904 Phases= 1 Bus1=255943901.1     Bus2=255943906.1     Length=118.60 units=m  Spacing=NEUTRAL-ABOVE-1PH wires=['2-ACSR-B-6X1' '2-ACSR-B-6X1']
New Line.262758359 Phases= 1 Bus1=262758356.3     Bus2=256165177.3     Length=48.68  units=m  Spacing=VERTICAL-1-PH-60-1PH wires=['2-ACSR-B-6X1' '2-ACSR-B-6X1']
New Line.260933642 Bus1=260856771.2     Bus2=260933643.2     LineCode=1/0-AL-TRXLPELCJ-15KV Phases= 1 Length=400.50 units=m enable=yes
New Line.256156714 Phases= 1 Bus1=256156711.1     Bus2=256156716.1     Length=95.77  units=m  Spacing=VERTICAL-1-PH-60-1PH wires=['4-ACSR-B-6X1' '4-ACSR-B-6X1']
New Line.259268575 Phases= 3 Bus1=256164815.1.2.3 Bus2=256164819.1.2.3 Length=174.80 units=m  Spacing=HORIZ-LINE-POST-3PH wires=['336-AAC-B-19' '336-AAC-B-19' '336-AAC-B-19' '1/0-ACSR-B-6X1']
New Line.256169886 Phases= 1 Bus1=256169878.1     Bus2=256169888.1     Length=19.28  units=m  Spacing=VERTICAL-1-PH-60-1PH wires=['1/0-ACSR-WP-6X1' '2-ACSR-B-6X1']
New Line.256164414 Phases= 1 Bus1=256164409.2     Bus2=256164416.2     Length=99.24  units=m  Spacing=NEUTRAL-ON-ARM-1PH wires=['2-ACSR-B-6X1' '2-ACSR-B-6X1']
New Line.260359055 Bus1=260359052.3     Bus2=260359057.3     LineCode=1/0-AL-HMWPECN-15KV Phases= 1 Length=139.10 units=m enable=yes
New Line.255956305 Phases= 1 Bus1=255956302.1     Bus2=255956307.1     Length=117.80 units=m  Spacing=VERTICAL-1-PH-60-1PH wires=['2-ACSR-B-6X1' '2-ACSR-B-6X1']
New Line.256169654 Phases= 3 Bus1=256169646.1.2.3 Bus2=256169656.1.2.3 Length=115.90 units=m  Spacing=8'-ARM-STANDARD-3PH wires=['1/0-ACSR-B-6X1' '1/0-ACSR-B-6X1' '1/0-ACSR-B-6X1' '2/0-ACSR-B-6X1']
New Line.915309409 Phases= 3 Bus1=915309406.1.2.3 Bus2=915309388.1.2.3 Length=43.11  units=m  Spacing=8'-ARM-STANDARD-3PH wires=['336-AAC-B-19' '336-AAC-B-19' '336-AAC-B-19' '1/0-ACSR-B-6X1']
New Line.262695307 Phases= 3 Bus1=255943204.1.2.3 Bus2=262695309.1.2.3 Length=1.53   units=m  Spacing=8'-ARM-NON-CENTER-POST-3PH wires=['2-ACSR-B-6X1' '2-ACSR-B-6X1' '2-ACSR-B-6X1' '2-ACSR-B-6X1']
New Line.260369634 Bus1=260369631.2     Bus2=260369636.2     LineCode=1/0-AL-HMWPECN-15KV Phases= 1 Length=153.40 units=m enable=yes
New Line.256169431 Phases= 3 Bus1=256169428.1.2.3 Bus2=256169433.1.2.3 Length=34.08  units=m  Spacing=8'-ARM-STANDARD-3PH wires=['1/0-ACSR-B-6X1' '1/0-ACSR-B-6X1' '1/0-ACSR-B-6X1' '2-ACSR-B-6X1']
New Line.256161062 Phases= 1 Bus1=256161063.1     Bus2=256161064.1     Length=56.43  units=m  Spacing=VERTICAL-1-PH-60-1PH wires=['2-ACSR-B-6X1' '2-ACSR-B-6X1']
New Line.259345782 Phases= 1 Bus1=255956307.1     Bus2=259345784.1     Length=20.84  units=m  Spacing=VERTICAL-1-PH-104-1PH wires=['2-ACSR-B-6X1' '2-ACSR-B-6X1']
New Line.260360115 Bus1=260360112.3     Bus2=260360117.3     LineCode=1/0-AL-HMWPECN-15KV Phases= 1 Length=103.30 units=m enable=yes
New Line.262774986 Bus1=262774983.2     Bus2=260369676.2     LineCode=1/0-AL-HMWPECN-15KV Phases= 1 Length=269.50 units=m enable=yes
New Line.259219344 Phases= 3 Bus1=256155815.1.2.3 Bus2=259219346.1.2.3 Length=87.32  units=m  Spacing=DBL-CKT-10'-&amp;-8'-ARMS-3PH wires=['336-AAC-B-19' '336-AAC-B-19' '336-AAC-B-19' '336-AAC-B-19']
New Line.256164890 Phases= 3 Bus1=256164887.1.2.3 Bus2=256164892.1.2.3 Length=38.12  units=m  Spacing=HORIZ-LINE-POST-3PH wires=['336-AAC-B-19' '336-AAC-B-19' '336-AAC-B-19' '1/0-ACSR-B-6X1']
New Line.256161081 Phases= 1 Bus1=256161078.1     Bus2=256161083.1     Length=112.20 units=m  Spacing=VERTICAL-1-PH-60-1PH wires=['2-ACSR-B-6X1' '2-ACSR-B-6X1']
New Line.255943540 Phases= 1 Bus1=255943384.2     Bus2=255943542.2     Length=57.50  units=m  Spacing=VERTICAL-1-PH-60-1PH wires=['2-ACSR-B-6X1' '2-ACSR-B-6X1']
New Line.264137814 Bus1=264137811.1     Bus2=261420955.1     LineCode=1/0-AL-TRXLPELCJ-15KV Phases= 1 Length=120.60 units=m enable=yes
New Line.263669892 Bus1=263669889.1     Bus2=260887264.1     LineCode=1/0-AL-TRXLPELCJ-15KV Phases= 1 Length=85.37  units=m enable=yes
New Line.263806682 Phases= 1 Bus1=263806679.3     Bus2=256169508.3     Length=77.07  units=m  Spacing=VERTICAL-1-PH-60-1PH wires=['2-ACSR-B-6X1' '2-ACSR-B-6X1']
New Line.866951412 Phases= 1 Bus1=262755680.1     Bus2=866951409.1     Length=50.15  units=m  Spacing=VERTICAL-1-PH-60-1PH wires=['2-ACSR-B-6X1' '2-ACSR-B-6X1']
New Line.256164631 Phases= 1 Bus1=256164628.1     Bus2=256164633.1     Length=76.18  units=m  Spacing=VERTICAL-1-PH-60-1PH wires=['2-ACSR-B-6X1' '2-ACSR-B-6X1']
New Line.867716532 Bus1=256164543.1     Bus2=867716534.1     LineCode=1/0-AL-TRXLPELCJ-25KV Phases= 1 Length=1.53   units=m enable=yes
New Line.724175719 Phases= 3 Bus1=620462598.1.2.3 Bus2=255943261.1.2.3 Length=102.60 units=m  Spacing=8'-ARM-NON-CENTER-POST-3PH wires=['2-ACSR-B-6X1' '2-ACSR-B-6X1' '2-ACSR-B-6X1' '2-ACSR-B-6X1']
New Line.260361249 Bus1=260361246.1     Bus2=260361251.1     LineCode=1/0-AL-HMWPECN-15KV Phases= 1 Length=86.99  units=m enable=yes
New Line.256161296 Phases= 1 Bus1=256161279.2     Bus2=256161298.2     Length=129.60 units=m  Spacing=VERTICAL-1-PH-60-1PH wires=['2-ACSR-B-6X1' '2-ACSR-B-6X1']
New Line.724175691 Bus1=724175687.3     Bus2=260361281.3     LineCode=1/0-AL-TRXLPELCJ-15KV Phases= 1 Length=14.64  units=m enable=yes
New Line.256169881 Phases= 1 Bus1=256169878.1     Bus2=256169883.1     Length=72.69  units=m  Spacing=NEUTRAL-ON-ARM-1PH wires=['2-ACSR-B-6X1' '2-ACSR-B-6X1']
New Line.256156051 Phases= 3 Bus1=256156046.1.2.3 Bus2=256156053.1.2.3 Length=116.30 units=m  Spacing=8'-ARM-STANDARD-3PH wires=['1/0-ACSR-B-6X1' '1/0-ACSR-B-6X1' '1/0-ACSR-B-6X1' '2-ACSR-B-6X1']
New Line.262757310 Phases= 1 Bus1=256161485.3     Bus2=262757312.3     Length=1.52   units=m  Spacing=VERTICAL-1-PH-60-1PH wires=['2-ACSR-B-6X1' '2-ACSR-B-6X1']
New Line.262695456 Bus1=262695453.1     Bus2=260315808.1     LineCode=1/0-AL-HMWPECN-15KV Phases= 1 Length=214.40 units=m enable=yes
New Line.262759649 Bus1=262759646.1     Bus2=260361236.1     LineCode=1/0-AL-HMWPECN-15KV Phases= 1 Length=209.00 units=m enable=yes
New Line.256160412 Phases= 1 Bus1=256160409.2     Bus2=256160414.2     Length=62.71  units=m  Spacing=VERTICAL-1-PH-60-1PH wires=['2-ACSR-B-6X1' '2-ACSR-B-6X1']
New Line.256165153 Phases= 1 Bus1=256165150.3     Bus2=256165155.3     Length=47.76  units=m  Spacing=VERTICAL-1-PH-60-1PH wires=['2-ACSR-B-6X1' '2-ACSR-B-6X1']
New Line.262695384 Phases= 1 Bus1=262695381.2     Bus2=255943574.2     Length=96.25  units=m  Spacing=VERTICAL-1-PH-60-1PH wires=['2-ACSR-B-6X1' '2-ACSR-B-6X1']
New Line.274920133 Phases= 1 Bus1=274920131.3     Bus2=256174229.3     Length=179.40 units=m  Spacing=VERTICAL-1-PH-60-1PH wires=['2-ACSR-B-6X1' '1/0-ACSR-B-6X1']
New Line.724175241 Phases= 1 Bus1=256160862.1     Bus2=262757087.1     Length=1.52   units=m  Spacing=VERTICAL-1-PH-60-1PH wires=['2-ACSR-B-6X1' '2-ACSR-B-6X1']
New Line.259591140 Phases= 1 Bus1=256161242.2     Bus2=256161246.2     Length=90.25  units=m  Spacing=VERTICAL-1-PH-60-1PH wires=['1/0-ACSR-B-6X1' '1/0-ACSR-B-6X1']
New Line.255943770 Phases= 1 Bus1=255943767.1     Bus2=255943772.1     Length=45.87  units=m  Spacing=NEUTRAL-ON-ARM-1PH wires=['2-ACSR-B-6X1' '2-ACSR-B-6X1']
New Line.794132506 Phases= 3 Bus1=256156057.1.2.3 Bus2=794132505.1.2.3 Length=61.57  units=m  Spacing=8'-ARM-STANDARD-3PH wires=['1/0-ACSR-B-6X1' '1/0-ACSR-B-6X1' '1/0-ACSR-B-6X1' '2-ACSR-B-6X1']
New Line.255943456 Phases= 1 Bus1=255943453.1     Bus2=255943458.1     Length=95.51  units=m  Spacing=VERTICAL-1-PH-60-1PH wires=['2-ACSR-B-6X1' '2-ACSR-B-6X1']
New Line.256160441 Phases= 1 Bus1=256157063.2     Bus2=256160443.2     Length=20.79  units=m  Spacing=VERTICAL-1-PH-60-1PH wires=['1/0-ACSR-WP-6X1' '2-ACSR-B-6X1']
New Line.263626899 Bus1=263626896.1     Bus2=260858484.1     LineCode=1/0-AL-TRXLPELCJ-15KV Phases= 1 Length=95.77  units=m enable=yes
New Line.259985346 Phases= 3 Bus1=256155766.1.2.3 Bus2=259219267.1.2.3 Length=30.49  units=m  Spacing=DBL-CKT-10'-&amp;-8'-ARMS-3PH wires=['336-AAC-B-19' '336-AAC-B-19' '336-AAC-B-19' '336-AAC-B-19']
New Line.256169127 Phases= 3 Bus1=256169129.1.2.3 Bus2=256169124.1.2.3 Length=106.90 units=m  Spacing=8'-ARM-STANDARD-3PH wires=['1/0-ACSR-B-6X1' '1/0-ACSR-B-6X1' '1/0-ACSR-B-6X1' '2-ACSR-B-6X1']
New Line.256161374 Phases= 1 Bus1=256161366.1     Bus2=256161376.1     Length=32.48  units=m  Spacing=VERTICAL-1-PH-60-1PH wires=['2-ACSR-B-6X1' '2-ACSR-B-6X1']
New Line.264512869 Phases= 3 Bus1=255942955.1.2.3 Bus2=264512871.1.2.3 Length=1.53   units=m  Spacing=8'-ARM-NON-CENTER-POST-3PH wires=['336-AAC-B-19' '336-AAC-B-19' '336-AAC-B-19' '1/0-ACSR-B-6X1']
New Line.256165345 Phases= 1 Bus1=256165335.3     Bus2=256165347.3     Length=100.30 units=m  Spacing=VERTICAL-1-PH-60-1PH wires=['2-ACSR-B-6X1' '2-ACSR-B-6X1']
New Line.255943483 Phases= 1 Bus1=255943480.1     Bus2=255943485.1     Length=182.70 units=m  Spacing=VERTICAL-1-PH-60-1PH wires=['2-ACSR-B-6X1' '2-ACSR-B-6X1']
New Line.261279291 Bus1=260361321.2     Bus2=260362145.2     LineCode=1/0-AL-TRXLPELCJ-15KV Phases= 1 Length=127.40 units=m enable=yes
New Line.264279185 Bus1=260360117.3     Bus2=264279183.3     LineCode=1/0-AL-HMWPECN-15KV Phases= 1 Length=270.80 units=m enable=yes
New Line.255943760 Phases= 1 Bus1=255943757.1     Bus2=255943762.1     Length=126.40 units=m  Spacing=NEUTRAL-ON-ARM-1PH wires=['2-ACSR-B-6X1' '2-ACSR-B-6X1']
New Line.263952778 Bus1=259108160.3     Bus2=263952780.3     LineCode=1/0-AL-TRXLPELCJ-15KV Phases= 1 Length=1.53   units=m enable=yes
New Line.256164738 Phases= 1 Bus1=256164735.3     Bus2=256164740.3     Length=117.50 units=m  Spacing=VERTICAL-1-PH-60-1PH wires=['2-ACSR-B-6X1' '2-ACSR-B-6X1']
New Line.262757193 Phases= 1 Bus1=256161088.1     Bus2=262757195.1     Length=1.53   units=m  Spacing=VERTICAL-1-PH-60-1PH wires=['2-ACSR-B-6X1' '2-ACSR-B-6X1']
New Line.256160776 Phases= 3 Bus1=256160771.1.2.3 Bus2=256160778.1.2.3 Length=102.60 units=m  Spacing=8'-ARM-STANDARD-3PH wires=['1/0-ACSR-B-6X1' '1/0-ACSR-B-6X1' '1/0-ACSR-B-6X1' '2-ACSR-B-6X1']
New Line.256161091 Phases= 1 Bus1=256161088.1     Bus2=256161093.1     Length=93.40  units=m  Spacing=VERTICAL-1-PH-60-1PH wires=['2-ACSR-B-6X1' '2-ACSR-B-6X1']
New Line.256169441 Phases= 3 Bus1=256169438.1.2.3 Bus2=256169443.1.2.3 Length=91.99  units=m  Spacing=8'-ARM-STANDARD-3PH wires=['1/0-ACSR-B-6X1' '1/0-ACSR-B-6X1' '1/0-ACSR-B-6X1' '2-ACSR-B-6X1']
New Line.872027021 Bus1=872027017.2     Bus2=872026994.2     LineCode=1/0-AL-TRXLPELCJ-25KV Phases= 1 Length=304.90 units=m enable=yes
New Line.264453047 Phases= 3 Bus1=264453045.1.2.3 Bus2=256169613.1.2.3 Length=11.72  units=m  Spacing=8'-ARM-STANDARD-3PH wires=['1/0-ACSR-B-6X1' '1/0-ACSR-B-6X1' '1/0-ACSR-B-6X1' '2-ACSR-B-6X1']
New Line.256164328 Phases= 1 Bus1=256164318.3     Bus2=256164330.3     Length=206.90 units=m  Spacing=VERTICAL-1-PH-60-1PH wires=['2-ACSR-B-6X1' '2-ACSR-B-6X1']
New Line.868746597 Bus1=259123401.2     Bus2=617434086.2     LineCode=1/0-AL-TRXLPELCJ-15KV Phases= 1 Length=1.53   units=m enable=yes
New Line.262758260 Phases= 1 Bus1=262758257.1     Bus2=256164655.1     Length=127.10 units=m  Spacing=VERTICAL-1-PH-60-1PH wires=['2-ACSR-B-6X1' '2-ACSR-B-6X1']
New Line.256156709 Phases= 1 Bus1=256156706.1     Bus2=256156711.1     Length=114.60 units=m  Spacing=VERTICAL-1-PH-60-1PH wires=['4-ACSR-B-6X1' '4-ACSR-B-6X1']
New Line.616843449 Bus1=256165075.3     Bus2=616843451.3     LineCode=1/0-AL-TRXLPELCJ-25KV Phases= 1 Length=1.51   units=m enable=yes
New Line.263766935 Phases= 1 Bus1=263766932.3     Bus2=259268622.3     Length=34.83  units=m  Spacing=VERTICAL-1-PH-104-1PH wires=['1/0-ACSR-B-6X1' '1/0-ACSR-B-6X1']
New Line.260369654 Bus1=260369651.2     Bus2=260369656.2     LineCode=1/0-AL-HMWPECN-15KV Phases= 1 Length=169.60 units=m enable=yes
New Line.256169496 Phases= 3 Bus1=256169493.1.2.3 Bus2=256169498.1.2.3 Length=78.69  units=m  Spacing=8'-ARM-STANDARD-3PH wires=['1/0-ACSR-B-6X1' '1/0-ACSR-B-6X1' '1/0-ACSR-B-6X1' '2-ACSR-B-6X1']
New Line.261176263 Bus1=261176260.3     Bus2=261176265.3     LineCode=1/0-AL-TRXLPELCJ-15KV Phases= 1 Length=30.18  units=m enable=yes
New Line.255942975 Phases= 3 Bus1=255942977.1.2.3 Bus2=255942955.1.2.3 Length=54.75  units=m  Spacing=8'-ARM-STANDARD-3PH wires=['336-AAC-B-19' '336-AAC-B-19' '336-AAC-B-19' '1/0-ACSR-B-6X1']
New Line.259415524 Phases= 1 Bus1=259415525.1     Bus2=259415526.1     Length=142.80 units=m  Spacing=VERTICAL-1-PH-60-1PH wires=['2-ACSR-B-6X1' '2-ACSR-B-6X1']
New Line.256161120 Phases= 1 Bus1=256161117.1     Bus2=256161122.1     Length=41.62  units=m  Spacing=VERTICAL-1-PH-60-1PH wires=['2-ACSR-B-6X1' '2-ACSR-B-6X1']
New Line.259106714 Phases= 1 Bus1=256160503.3     Bus2=259106716.3     Length=84.07  units=m  Spacing=VERTICAL-1-PH-104-1PH wires=['2-ACSR-B-6X1' '2-ACSR-B-6X1']
New Line.624238565 Phases= 1 Bus1=255956302.1     Bus2=624238567.1     Length=1.52   units=m  Spacing=VERTICAL-1-PH-104-1PH wires=['DEFAULT' 'DEFAULT']
New Line.262757076 Phases= 1 Bus1=256160845.2     Bus2=262757078.2     Length=1.52   units=m  Spacing=VERTICAL-1-PH-104-1PH wires=['1/0-ACSR-WP-6X1' '2-ACSR-B-6X1']
New Line.627212484 Phases= 3 Bus1=256164820.1.2.3 Bus2=627212483.1.2.3 Length=11.93  units=m  Spacing=8'-ARM-STANDARD-3PH wires=['336-AAC-B-19' '336-AAC-B-19' '336-AAC-B-19' '1/0-ACSR-B-6X1']
New Line.256161495 Phases= 1 Bus1=256161492.3     Bus2=256161497.3     Length=6.37   units=m  Spacing=VERTICAL-1-PH-60-1PH wires=['2-ACSR-B-6X1' '2-ACSR-B-6X1']
New Line.260360170 Bus1=260360167.1     Bus2=260360172.1     LineCode=1/0-AL-HMWPECN-15KV Phases= 1 Length=52.97  units=m enable=yes
New Line.871146058 Bus1=871146026.1     Bus2=871146048.1     LineCode=1/0-AL-TRXLPELCJ-25KV Phases= 1 Length=14.11  units=m enable=yes
New Line.255943029 Phases= 3 Bus1=255943031.1.2.3 Bus2=255943024.1.2.3 Length=85.06  units=m  Spacing=8'-ARM-STANDARD-3PH wires=['336-AAC-B-19' '336-AAC-B-19' '336-AAC-B-19' '1/0-ACSR-B-6X1']
New Line.256160316 Phases= 1 Bus1=256160313.2     Bus2=256160318.2     Length=82.80  units=m  Spacing=NEUTRAL-ON-ARM-1PH wires=['2-ACSR-B-6X1' '2-ACSR-B-6X1']
New Line.256169243 Phases= 1 Bus1=256169240.1     Bus2=256169245.1     Length=130.10 units=m  Spacing=VERTICAL-1-PH-60-1PH wires=['2-ACSR-B-6X1' '2-ACSR-B-6X1']
New Line.384708644 Phases= 1 Bus1=384708640.1     Bus2=255943712.1     Length=139.20 units=m  Spacing=NEUTRAL-ON-ARM-1PH wires=['2-ACSR-B-6X1' '2-ACSR-B-6X1']
New Line.256174331 Phases= 1 Bus1=256174328.3     Bus2=256174333.3     Length=162.80 units=m  Spacing=VERTICAL-1-PH-60-1PH wires=['2-ACSR-B-6X1' '2-ACSR-B-6X1']
New Line.617604576 Phases= 1 Bus1=617604573.1     Bus2=255943958.1     Length=74.95  units=m  Spacing=VERTICAL-1-PH-60-1PH wires=['2-ACSR-B-6X1' '2-ACSR-B-6X1']
New Line.256160575 Phases= 3 Bus1=256160572.1.2.3 Bus2=256160577.1.2.3 Length=125.30 units=m  Spacing=8'-ARM-STANDARD-3PH wires=['1/0-ACSR-B-6X1' '1/0-ACSR-B-6X1' '1/0-ACSR-B-6X1' '1/0-ACSR-B-6X1']
New Line.262758467 Phases= 1 Bus1=262758464.3     Bus2=256165330.3     Length=74.06  units=m  Spacing=VERTICAL-1-PH-60-1PH wires=['2-ACSR-B-6X1' '2-ACSR-B-6X1']
New Line.256165224 Phases= 3 Bus1=256165221.1.2.3 Bus2=256165226.1.2.3 Length=43.67  units=m  Spacing=8'-ARM-NON-CENTER-POST-3PH wires=['2-ACSR-B-6X1' '2-ACSR-B-6X1' '2-ACSR-B-6X1' '2-ACSR-B-6X1']
New Line.256170054 Phases= 1 Bus1=256170051.1     Bus2=256170056.1     Length=138.60 units=m  Spacing=VERTICAL-1-PH-60-1PH wires=['2-ACSR-B-6X1' '2-ACSR-B-6X1']
New Line.262759568 Phases= 1 Bus1=262759565.2     Bus2=256174281.2     Length=11.67  units=m  Spacing=VERTICAL-1-PH-60-1PH wires=['2-ACSR-B-6X1' '2-ACSR-B-6X1']
New Line.262755759 Bus1=256156449.1     Bus2=262755761.1     LineCode=1/0-AL-HMWPECN-15KV Phases= 1 Length=1.52   units=m enable=yes
New Line.263621425 Bus1=259106716.3     Bus2=263621427.3     LineCode=1/0-AL-TRXLPELCJ-15KV Phases= 1 Length=1.52   units=m enable=yes
New Line.256169551 Phases= 3 Bus1=256169543.1.2.3 Bus2=256169553.1.2.3 Length=78.78  units=m  Spacing=8'-ARM-STANDARD-3PH wires=['1/0-ACSR-B-6X1' '1/0-ACSR-B-6X1' '1/0-ACSR-B-6X1' '2-ACSR-B-6X1']
New Line.256168898 Phases= 1 Bus1=256168895.3     Bus2=256168900.3     Length=54.28  units=m  Spacing=VERTICAL-1-PH-60-1PH wires=['2-ACSR-B-6X1' '2-ACSR-B-6X1']
New Line.256169491 Phases= 3 Bus1=256169488.1.2.3 Bus2=256169493.1.2.3 Length=75.27  units=m  Spacing=8'-ARM-STANDARD-3PH wires=['1/0-ACSR-B-6X1' '1/0-ACSR-B-6X1' '1/0-ACSR-B-6X1' '2-ACSR-B-6X1']
New Line.256160706 Phases= 3 Bus1=256160698.1.2.3 Bus2=256160708.1.2.3 Length=75.92  units=m  Spacing=8'-ARM-STANDARD-3PH wires=['1/0-ACSR-B-6X1' '1/0-ACSR-B-6X1' '1/0-ACSR-B-6X1' '2-ACSR-B-6X1']
...
