KIME_1203/KIME_1203.sxst_DSS/Elements/Loads.dss
New Load.256169743_3 Bus1=256169743.3 Phases=1 kV=7.2169 kW=0.000000 yearly=YearlyC daily=DailyC kVAR=0.000000
New Load.261278239_2 Bus1=261278239.2 Phases=1 kV=7.2169 kW=0.000000 yearly=YearlyB daily=DailyB kVAR=0.000000
New Load.256165008_2 Bus1=256165008.2 Phases=1 kV=7.2169 kW=0.000000 yearly=YearlyB daily=DailyB kVAR=0.000000
New Load.260360182_3 Bus1=260360182.3 Phases=1 kV=7.2169 kW=0.000000 yearly=YearlyC daily=DailyC kVAR=0.000000
New Load.256156943_3 Bus1=256156943.3 Phases=1 kV=7.2169 kW=0.000000 yearly=YearlyC daily=DailyC kVAR=0.000000
New Load.255943500_1 Bus1=255943500.1 Phases=1 kV=7.2169 kW=0.000000 yearly=YearlyA daily=DailyA kVAR=0.000000
New Load.915794350_3 Bus1=915794350.3 Phases=1 kV=7.2169 kW=0.000000 yearly=YearlyC daily=DailyC kVAR=0.000000
New Load.256161158_1 Bus1=256161158.1 Phases=1 kV=7.2169 kW=0.000000 yearly=YearlyA daily=DailyA kVAR=0.000000
New Load.256169868_1 Bus1=256169868.1 Phases=1 kV=7.2169 kW=0.000000 yearly=YearlyA daily=DailyA kVAR=0.000000
New Load.261238457_1 Bus1=261238457.1 Phases=1 kV=7.2169 kW=0.000000 yearly=YearlyA daily=DailyA kVAR=0.000000
New Load.255956363_1 Bus1=255956363.1 Phases=1 kV=7.2169 kW=0.000000 yearly=YearlyA daily=DailyA kVAR=0.000000
New Load.260369651_2 Bus1=260369651.2 Phases=1 kV=7.2169 kW=0.000000 yearly=YearlyB daily=DailyB kVAR=0.000000
New Load.261134615_3 Bus1=261134615.3 Phases=1 kV=7.2169 kW=0.000000 yearly=YearlyC daily=DailyC kVAR=0.000000
New Load.256160732_2 Bus1=256160732.2 Phases=1 kV=7.2169 kW=0.000000 yearly=YearlyB daily=DailyB kVAR=0.000000
New Load.256161371_1 Bus1=256161371.1 Phases=1 kV=7.2169 kW=0.000000 yearly=YearlyA daily=DailyA kVAR=0.000000
New Load.256160462_2 Bus1=256160462.2 Phases=1 kV=7.2169 kW=0.000000 yearly=YearlyB daily=DailyB kVAR=0.000000
New Load.256161006_2 Bus1=256161006.2 Phases=1 kV=7.2169 kW=0.000000 yearly=YearlyB daily=DailyB kVAR=0.000000
New Load.256169203_1 Bus1=256169203.1 Phases=1 kV=7.2169 kW=0.000000 yearly=YearlyA daily=DailyA kVAR=0.000000
New Load.259497373_3 Bus1=259497373.3 Phases=1 kV=7.2169 kW=0.000000 yearly=YearlyC daily=DailyC kVAR=0.000000
New Load.256169972_1 Bus1=256169972.1 Phases=1 kV=7.2169 kW=0.000000 yearly=YearlyA daily=DailyA kVAR=0.000000
New Load.256170012_1 Bus1=256170012.1 Phases=1 kV=7.2169 kW=0.000000 yearly=YearlyA daily=DailyA kVAR=0.000000
New Load.256156862_3 Bus1=256156862.3 Phases=1 kV=7.2169 kW=0.000000 yearly=YearlyC daily=DailyC kVAR=0.000000
New Load.260359037_2 Bus1=260359037.2 Phases=1 kV=7.2169 kW=0.000000 yearly=YearlyB daily=DailyB kVAR=0.000000
New Load.256164172_3 Bus1=256164172.3 Phases=1 kV=7.2169 kW=0.000000 yearly=YearlyC daily=DailyC kVAR=0.000000
New Load.256169295_1 Bus1=256169295.1 Phases=1 kV=7.2169 kW=0.000000 yearly=YearlyA daily=DailyA kVAR=0.000000
New Load.256156679_1 Bus1=256156679.1 Phases=1 kV=7.2169 kW=0.000000 yearly=YearlyA daily=DailyA kVAR=0.000000
New Load.256164298_3 Bus1=256164298.3 Phases=1 kV=7.2169 kW=0.000000 yearly=YearlyC daily=DailyC kVAR=0.000000
New Load.255943998_1 Bus1=255943998.1 Phases=1 kV=7.2169 kW=0.000000 yearly=YearlyA daily=DailyA kVAR=0.000000
New Load.261259861_1 Bus1=261259861.1 Phases=1 kV=7.2169 kW=0.000000 yearly=YearlyA daily=DailyA kVAR=0.000000
New Load.256160913_1 Bus1=256160913.1 Phases=1 kV=7.2169 kW=0.000000 yearly=YearlyA daily=DailyA kVAR=0.000000
New Load.260358010_1 Bus1=260358010.1 Phases=1 kV=7.2169 kW=0.000000 yearly=YearlyA daily=DailyA kVAR=0.000000
New Load.872031051_2 Bus1=872031051.2 Phases=1 kV=7.2169 kW=0.000000 yearly=YearlyB daily=DailyB kVAR=0.000000
New Load.260361246_1 Bus1=260361246.1 Phases=1 kV=7.2169 kW=0.000000 yearly=YearlyA daily=DailyA kVAR=0.000000
New Load.255943214_1 Bus1=255943214.1 Phases=1 kV=7.2169 kW=0.000000 yearly=YearlyA daily=DailyA kVAR=0.000000
New Load.256164585_1 Bus1=256164585.1 Phases=1 kV=7.2169 kW=0.000000 yearly=YearlyA daily=DailyA kVAR=0.000000
New Load.256165253_3 Bus1=256165253.3 Phases=1 kV=7.2169 kW=0.000000 yearly=YearlyC daily=DailyC kVAR=0.000000
New Load.256160874_1 Bus1=256160874.1 Phases=1 kV=7.2169 kW=0.000000 yearly=YearlyA daily=DailyA kVAR=0.000000
New Load.255943973_1 Bus1=255943973.1 Phases=1 kV=7.2169 kW=0.000000 yearly=YearlyA daily=DailyA kVAR=0.000000
New Load.256160562_1 Bus1=256160562.1 Phases=1 kV=7.2169 kW=0.000000 yearly=YearlyA daily=DailyA kVAR=0.000000
New Load.256174286_2 Bus1=256174286.2 Phases=1 kV=7.2169 kW=0.000000 yearly=YearlyB daily=DailyB kVAR=0.000000
New Load.256165177_3 Bus1=256165177.3 Phases=1 kV=7.2169 kW=0.000000 yearly=YearlyC daily=DailyC kVAR=0.000000
New Load.260933643_2 Bus1=260933643.2 Phases=1 kV=7.2169 kW=0.000000 yearly=YearlyB daily=DailyB kVAR=0.000000
New Load.256156716_1 Bus1=256156716.1 Phases=1 kV=7.2169 kW=0.000000 yearly=YearlyA daily=DailyA kVAR=0.000000
New Load.256164819_1 Bus1=256164819.1 Phases=1 kV=7.2169 kW=0.000000 yearly=YearlyA daily=DailyA kVAR=0.000000
New Load.256164819_2 Bus1=256164819.2 Phases=1 kV=7.2169 kW=0.000000 yearly=YearlyB daily=DailyB kVAR=0.000000
New Load.256164819_3 Bus1=256164819.3 Phases=1 kV=7.2169 kW=0.000000 yearly=YearlyC daily=DailyC kVAR=0.000000
New Load.260359057_3 Bus1=260359057.3 Phases=1 kV=7.2169 kW=0.000000 yearly=YearlyC daily=DailyC kVAR=0.000000
New Load.260369636_2 Bus1=260369636.2 Phases=1 kV=7.2169 kW=0.000000 yearly=YearlyB daily=DailyB kVAR=0.000000
New Load.256169433_3 Bus1=256169433.3 Phases=1 kV=7.2169 kW=0.000000 yearly=YearlyC daily=DailyC kVAR=0.000000
New Load.256161064_1 Bus1=256161064.1 Phases=1 kV=7.2169 kW=0.000000 yearly=YearlyA daily=DailyA kVAR=0.000000
New Load.260360117_3 Bus1=260360117.3 Phases=1 kV=7.2169 kW=0.000000 yearly=YearlyC daily=DailyC kVAR=0.000000
New Load.260369676_2 Bus1=260369676.2 Phases=1 kV=7.2169 kW=0.000000 yearly=YearlyB daily=DailyB kVAR=0.000000
New Load.259219346_1 Bus1=259219346.1 Phases=1 kV=7.2169 kW=0.000000 yearly=YearlyA daily=DailyA kVAR=0.000000
New Load.255943542_2 Bus1=255943542.2 Phases=1 kV=7.2169 kW=0.000000 yearly=YearlyB daily=DailyB kVAR=0.000000
New Load.261420955_1 Bus1=261420955.1 Phases=1 kV=7.2169 kW=0.000000 yearly=YearlyA daily=DailyA kVAR=0.000000
New Load.260887264_1 Bus1=260887264.1 Phases=1 kV=7.2169 kW=0.000000 yearly=YearlyA daily=DailyA kVAR=0.000000
New Load.256169508_3 Bus1=256169508.3 Phases=1 kV=7.2169 kW=0.000000 yearly=YearlyC daily=DailyC kVAR=0.000000
New Load.260361251_1 Bus1=260361251.1 Phases=1 kV=7.2169 kW=0.000000 yearly=YearlyA daily=DailyA kVAR=0.000000
New Load.256161298_2 Bus1=256161298.2 Phases=1 kV=7.2169 kW=0.000000 yearly=YearlyB daily=DailyB kVAR=0.000000
New Load.260361281_3 Bus1=260361281.3 Phases=1 kV=7.2169 kW=0.000000 yearly=YearlyC daily=DailyC kVAR=0.000000
New Load.256169883_1 Bus1=256169883.1 Phases=1 kV=7.2169 kW=0.000000 yearly=YearlyA daily=DailyA kVAR=0.000000
New Load.260315808_1 Bus1=260315808.1 Phases=1 kV=7.2169 kW=0.000000 yearly=YearlyA daily=DailyA kVAR=0.000000
New Load.260361236_1 Bus1=260361236.1 Phases=1 kV=7.2169 kW=0.000000 yearly=YearlyA daily=DailyA kVAR=0.000000
New Load.256160414_2 Bus1=256160414.2 Phases=1 kV=7.2169 kW=0.000000 yearly=YearlyB daily=DailyB kVAR=0.000000
New Load.256165155_3 Bus1=256165155.3 Phases=1 kV=7.2169 kW=0.000000 yearly=YearlyC daily=DailyC kVAR=0.000000
New Load.256174229_3 Bus1=256174229.3 Phases=1 kV=7.2169 kW=0.000000 yearly=YearlyC daily=DailyC kVAR=0.000000
New Load.256161246_2 Bus1=256161246.2 Phases=1 kV=7.2169 kW=0.000000 yearly=YearlyB daily=DailyB kVAR=0.000000
New Load.255943772_1 Bus1=255943772.1 Phases=1 kV=7.2169 kW=0.000000 yearly=YearlyA daily=DailyA kVAR=0.000000
New Load.794132505_1 Bus1=794132505.1 Phases=1 kV=7.2169 kW=0.000000 yearly=YearlyA daily=DailyA kVAR=0.000000
New Load.256160443_2 Bus1=256160443.2 Phases=1 kV=7.2169 kW=0.000000 yearly=YearlyB daily=DailyB kVAR=0.000000
New Load.260858484_1 Bus1=260858484.1 Phases=1 kV=7.2169 kW=0.000000 yearly=YearlyA daily=DailyA kVAR=0.000000
New Load.256161376_1 Bus1=256161376.1 Phases=1 kV=7.2169 kW=0.000000 yearly=YearlyA daily=DailyA kVAR=0.000000
New Load.256165347_3 Bus1=256165347.3 Phases=1 kV=7.2169 kW=0.000000 yearly=YearlyC daily=DailyC kVAR=0.000000
New Load.255943485_1 Bus1=255943485.1 Phases=1 kV=7.2169 kW=0.000000 yearly=YearlyA daily=DailyA kVAR=0.000000
New Load.260362145_2 Bus1=260362145.2 Phases=1 kV=7.2169 kW=0.000000 yearly=YearlyB daily=DailyB kVAR=0.000000
New Load.255943762_1 Bus1=255943762.1 Phases=1 kV=7.2169 kW=0.000000 yearly=YearlyA daily=DailyA kVAR=0.000000
New Load.256164740_3 Bus1=256164740.3 Phases=1 kV=7.2169 kW=0.000000 yearly=YearlyC daily=DailyC kVAR=0.000000
New Load.256161093_1 Bus1=256161093.1 Phases=1 kV=7.2169 kW=0.000000 yearly=YearlyA daily=DailyA kVAR=0.000000
New Load.872026994_2 Bus1=872026994.2 Phases=1 kV=7.2169 kW=0.000000 yearly=YearlyB daily=DailyB kVAR=0.000000
New Load.256156711_1 Bus1=256156711.1 Phases=1 kV=7.2169 kW=0.000000 yearly=YearlyA daily=DailyA kVAR=0.000000
New Load.260369656_2 Bus1=260369656.2 Phases=1 kV=7.2169 kW=0.000000 yearly=YearlyB daily=DailyB kVAR=0.000000
New Load.261176265_3 Bus1=261176265.3 Phases=1 kV=7.2169 kW=0.000000 yearly=YearlyC daily=DailyC kVAR=0.000000
New Load.256161122_1 Bus1=256161122.1 Phases=1 kV=7.2169 kW=0.000000 yearly=YearlyA daily=DailyA kVAR=0.000000
New Load.627212483_3 Bus1=627212483.3 Phases=1 kV=7.2169 kW=0.000000 yearly=YearlyC daily=DailyC kVAR=0.000000
New Load.256161497_3 Bus1=256161497.3 Phases=1 kV=7.2169 kW=0.000000 yearly=YearlyC daily=DailyC kVAR=0.000000
New Load.260360172_1 Bus1=260360172.1 Phases=1 kV=7.2169 kW=0.000000 yearly=YearlyA daily=DailyA kVAR=0.000000
New Load.255943024_2 Bus1=255943024.2 Phases=1 kV=7.2169 kW=0.000000 yearly=YearlyB daily=DailyB kVAR=0.000000
New Load.256160318_2 Bus1=256160318.2 Phases=1 kV=7.2169 kW=0.000000 yearly=YearlyB daily=DailyB kVAR=0.000000
New Load.256169245_1 Bus1=256169245.1 Phases=1 kV=7.2169 kW=0.000000 yearly=YearlyA daily=DailyA kVAR=0.000000
New Load.255943712_1 Bus1=255943712.1 Phases=1 kV=7.2169 kW=0.000000 yearly=YearlyA daily=DailyA kVAR=0.000000
New Load.256174333_3 Bus1=256174333.3 Phases=1 kV=7.2169 kW=0.000000 yearly=YearlyC daily=DailyC kVAR=0.000000
New Load.255943958_1 Bus1=255943958.1 Phases=1 kV=7.2169 kW=0.000000 yearly=YearlyA daily=DailyA kVAR=0.000000
New Load.256160577_2 Bus1=256160577.2 Phases=1 kV=7.2169 kW=0.000000 yearly=YearlyB daily=DailyB kVAR=0.000000
New Load.256165226_2 Bus1=256165226.2 Phases=1 kV=7.2169 kW=0.000000 yearly=YearlyB daily=DailyB kVAR=0.000000
New Load.256168900_3 Bus1=256168900.3 Phases=1 kV=7.2169 kW=0.000000 yearly=YearlyC daily=DailyC kVAR=0.000000
New Load.256160708_2 Bus1=256160708.2 Phases=1 kV=7.2169 kW=0.000000 yearly=YearlyB daily=DailyB kVAR=0.000000
New Load.259415511_2 Bus1=259415511.2 Phases=1 kV=7.2169 kW=0.000000 yearly=YearlyB daily=DailyB kVAR=0.000000
New Load.260369616_3 Bus1=260369616.3 Phases=1 kV=7.2169 kW=0.000000 yearly=YearlyC daily=DailyC kVAR=0.000000
New Load.716828008_2 Bus1=716828008.2 Phases=1 kV=7.2169 kW=0.000000 yearly=YearlyB daily=DailyB kVAR=0.000000
New Load.256160720_2 Bus1=256160720.2 Phases=1 kV=7.2169 kW=0.000000 yearly=YearlyB daily=DailyB kVAR=0.000000
New Load.256161030_1 Bus1=256161030.1 Phases=1 kV=7.2169 kW=0.000000 yearly=YearlyA daily=DailyA kVAR=0.000000
New Load.260944092_3 Bus1=260944092.3 Phases=1 kV=7.2169 kW=0.000000 yearly=YearlyC daily=DailyC kVAR=0.000000
New Load.255943824_1 Bus1=255943824.1 Phases=1 kV=7.2169 kW=0.000000 yearly=YearlyA daily=DailyA kVAR=0.000000
New Load.256164402_1 Bus1=256164402.1 Phases=1 kV=7.2169 kW=0.000000 yearly=YearlyA daily=DailyA kVAR=0.000000
New Load.256164402_2 Bus1=256164402.2 Phases=1 kV=7.2169 kW=0.000000 yearly=YearlyB daily=DailyB kVAR=0.000000
New Load.256161344_1 Bus1=256161344.1 Phases=1 kV=7.2169 kW=0.000000 yearly=YearlyA daily=DailyA kVAR=0.000000
New Load.256168915_3 Bus1=256168915.3 Phases=1 kV=7.2169 kW=0.000000 yearly=YearlyC daily=DailyC kVAR=0.000000
New Load.256156409_1 Bus1=256156409.1 Phases=1 kV=7.2169 kW=0.000000 yearly=YearlyA daily=DailyA kVAR=0.000000
New Load.256156587_1 Bus1=256156587.1 Phases=1 kV=7.2169 kW=0.000000 yearly=YearlyA daily=DailyA kVAR=0.000000
New Load.256169181_3 Bus1=256169181.3 Phases=1 kV=7.2169 kW=0.000000 yearly=YearlyC daily=DailyC kVAR=0.000000
New Load.256169230_1 Bus1=256169230.1 Phases=1 kV=7.2169 kW=0.000000 yearly=YearlyA daily=DailyA kVAR=0.000000
New Load.260944111_3 Bus1=260944111.3 Phases=1 kV=7.2169 kW=0.000000 yearly=YearlyC daily=DailyC kVAR=0.000000
New Load.256161165_1 Bus1=256161165.1 Phases=1 kV=7.2169 kW=0.000000 yearly=YearlyA daily=DailyA kVAR=0.000000
New Load.700451216_2 Bus1=700451216.2 Phases=1 kV=7.2169 kW=0.000000 yearly=YearlyB daily=DailyB kVAR=0.000000
New Load.256156293_2 Bus1=256156293.2 Phases=1 kV=7.2169 kW=0.000000 yearly=YearlyB daily=DailyB kVAR=0.000000
New Load.256164643_1 Bus1=256164643.1 Phases=1 kV=7.2169 kW=0.000000 yearly=YearlyA daily=DailyA kVAR=0.000000
New Load.256156611_1 Bus1=256156611.1 Phases=1 kV=7.2169 kW=0.000000 yearly=YearlyA daily=DailyA kVAR=0.000000
New Load.260360097_3 Bus1=260360097.3 Phases=1 kV=7.2169 kW=0.000000 yearly=YearlyC daily=DailyC kVAR=0.000000
New Load.256161546_3 Bus1=256161546.3 Phases=1 kV=7.2169 kW=0.000000 yearly=YearlyC daily=DailyC kVAR=0.000000
New Load.255943433_1 Bus1=255943433.1 Phases=1 kV=7.2169 kW=0.000000 yearly=YearlyA daily=DailyA kVAR=0.000000
New Load.255943433_2 Bus1=255943433.2 Phases=1 kV=7.2169 kW=0.000000 yearly=YearlyB daily=DailyB kVAR=0.000000
New Load.255943433_3 Bus1=255943433.3 Phases=1 kV=7.2169 kW=0.000000 yearly=YearlyC daily=DailyC kVAR=0.000000
New Load.256161329_1 Bus1=256161329.1 Phases=1 kV=7.2169 kW=0.000000 yearly=YearlyA daily=DailyA kVAR=0.000000
New Load.260315803_1 Bus1=260315803.1 Phases=1 kV=7.2169 kW=0.000000 yearly=YearlyA daily=DailyA kVAR=0.000000
New Load.256169324_1 Bus1=256169324.1 Phases=1 kV=7.2169 kW=0.000000 yearly=YearlyA daily=DailyA kVAR=0.000000
New Load.256169324_2 Bus1=256169324.2 Phases=1 kV=7.2169 kW=0.000000 yearly=YearlyB daily=DailyB kVAR=0.000000
New Load.256169324_3 Bus1=256169324.3 Phases=1 kV=7.2169 kW=0.000000 yearly=YearlyC daily=DailyC kVAR=0.000000
New Load.873924729_1 Bus1=873924729.1 Phases=1 kV=7.2169 kW=0.000000 yearly=YearlyA daily=DailyA kVAR=0.000000
New Load.256156084_2 Bus1=256156084.2 Phases=1 kV=7.2169 kW=0.000000 yearly=YearlyB daily=DailyB kVAR=0.000000
New Load.256161182_1 Bus1=256161182.1 Phases=1 kV=7.2169 kW=0.000000 yearly=YearlyA daily=DailyA kVAR=0.000000
New Load.260360082_3 Bus1=260360082.3 Phases=1 kV=7.2169 kW=0.000000 yearly=YearlyC daily=DailyC kVAR=0.000000
New Load.724175631_3 Bus1=724175631.3 Phases=1 kV=7.2169 kW=0.000000 yearly=YearlyC daily=DailyC kVAR=0.000000
New Load.256164672_1 Bus1=256164672.1 Phases=1 kV=7.2169 kW=0.000000 yearly=YearlyA daily=DailyA kVAR=0.000000
New Load.260357985_1 Bus1=260357985.1 Phases=1 kV=7.2169 kW=0.000000 yearly=YearlyA daily=DailyA kVAR=0.000000
New Load.256156857_3 Bus1=256156857.3 Phases=1 kV=7.2169 kW=0.000000 yearly=YearlyC daily=DailyC kVAR=0.000000
New Load.261115922_1 Bus1=261115922.1 Phases=1 kV=7.2169 kW=0.000000 yearly=YearlyA daily=DailyA kVAR=0.000000
New Load.256169023_2 Bus1=256169023.2 Phases=1 kV=7.2169 kW=0.000000 yearly=YearlyB daily=DailyB kVAR=0.000000
New Load.260358005_1 Bus1=260358005.1 Phases=1 kV=7.2169 kW=0.000000 yearly=YearlyA daily=DailyA kVAR=0.000000
New Load.255943702_1 Bus1=255943702.1 Phases=1 kV=7.2169 kW=0.000000 yearly=YearlyA daily=DailyA kVAR=0.000000
New Load.256156322_3 Bus1=256156322.3 Phases=1 kV=7.2169 kW=0.000000 yearly=YearlyC daily=DailyC kVAR=0.000000
New Load.256156538_1 Bus1=256156538.1 Phases=1 kV=7.2169 kW=0.000000 yearly=YearlyA daily=DailyA kVAR=0.000000
New Load.260361291_1 Bus1=260361291.1 Phases=1 kV=7.2169 kW=0.000000 yearly=YearlyA daily=DailyA kVAR=0.000000
New Load.260369661_2 Bus1=260369661.2 Phases=1 kV=7.2169 kW=0.000000 yearly=YearlyB daily=DailyB kVAR=0.000000
New Load.260873156_1 Bus1=260873156.1 Phases=1 kV=7.2169 kW=0.000000 yearly=YearlyA daily=DailyA kVAR=0.000000
New Load.256164919_1 Bus1=256164919.1 Phases=1 kV=7.2169 kW=0.000000 yearly=YearlyA daily=DailyA kVAR=0.000000
New Load.256156148_2 Bus1=256156148.2 Phases=1 kV=7.2169 kW=0.000000 yearly=YearlyB daily=DailyB kVAR=0.000000
New Load.256170098_1 Bus1=256170098.1 Phases=1 kV=7.2169 kW=0.000000 yearly=YearlyA daily=DailyA kVAR=0.000000
New Load.261243191_3 Bus1=261243191.3 Phases=1 kV=7.2169 kW=0.000000 yearly=YearlyC daily=DailyC kVAR=0.000000
New Load.255956324_1 Bus1=255956324.1 Phases=1 kV=7.2169 kW=0.000000 yearly=YearlyA daily=DailyA kVAR=0.000000
New Load.256174301_1 Bus1=256174301.1 Phases=1 kV=7.2169 kW=0.000000 yearly=YearlyA daily=DailyA kVAR=0.000000
New Load.256174301_2 Bus1=256174301.2 Phases=1 kV=7.2169 kW=0.000000 yearly=YearlyB daily=DailyB kVAR=0.000000
New Load.256174301_3 Bus1=256174301.3 Phases=1 kV=7.2169 kW=0.000000 yearly=YearlyC daily=DailyC kVAR=0.000000
New Load.256170103_1 Bus1=256170103.1 Phases=1 kV=7.2169 kW=0.000000 yearly=YearlyA daily=DailyA kVAR=0.000000
New Load.260360162_1 Bus1=260360162.1 Phases=1 kV=7.2169 kW=0.000000 yearly=YearlyA daily=DailyA kVAR=0.000000
New Load.621698332_1 Bus1=621698332.1 Phases=1 kV=7.2169 kW=0.000000 yearly=YearlyA daily=DailyA kVAR=0.000000
New Load.621698332_2 Bus1=621698332.2 Phases=1 kV=7.2169 kW=0.000000 yearly=YearlyB daily=DailyB kVAR=0.000000
New Load.621698332_3 Bus1=621698332.3 Phases=1 kV=7.2169 kW=0.000000 yearly=YearlyC daily=DailyC kVAR=0.000000
New Load.256164983_3 Bus1=256164983.3 Phases=1 kV=7.2169 kW=0.000000 yearly=YearlyC daily=DailyC kVAR=0.000000
New Load.255943362_1 Bus1=255943362.1 Phases=1 kV=7.2169 kW=0.000000 yearly=YearlyA daily=DailyA kVAR=0.000000
New Load.256164660_1 Bus1=256164660.1 Phases=1 kV=7.2169 kW=0.000000 yearly=YearlyA daily=DailyA kVAR=0.000000
New Load.256165248_3 Bus1=256165248.3 Phases=1 kV=7.2169 kW=0.000000 yearly=YearlyC daily=DailyC kVAR=0.000000
New Load.256170093_1 Bus1=256170093.1 Phases=1 kV=7.2169 kW=0.000000 yearly=YearlyA daily=DailyA kVAR=0.000000
New Load.256164436_2 Bus1=256164436.2 Phases=1 kV=7.2169 kW=0.000000 yearly=YearlyB daily=DailyB kVAR=0.000000
New Load.260362211_3 Bus1=260362211.3 Phases=1 kV=7.2169 kW=0.000000 yearly=YearlyC daily=DailyC kVAR=0.000000
New Load.261034502_2 Bus1=261034502.2 Phases=1 kV=7.2169 kW=0.000000 yearly=YearlyB daily=DailyB kVAR=0.000000
New Load.255956415_1 Bus1=255956415.1 Phases=1 kV=7.2169 kW=0.000000 yearly=YearlyA daily=DailyA kVAR=0.000000
New Load.259550883_2 Bus1=259550883.2 Phases=1 kV=7.2169 kW=0.000000 yearly=YearlyB daily=DailyB kVAR=0.000000
New Load.256165033_2 Bus1=256165033.2 Phases=1 kV=7.2169 kW=0.000000 yearly=YearlyB daily=DailyB kVAR=0.000000
New Load.256156758_1 Bus1=256156758.1 Phases=1 kV=7.2169 kW=0.000000 yearly=YearlyA daily=DailyA kVAR=0.000000
New Load.256169453_1 Bus1=256169453.1 Phases=1 kV=7.2169 kW=0.000000 yearly=YearlyA daily=DailyA kVAR=0.000000
New Load.260313733_2 Bus1=260313733.2 Phases=1 kV=7.2169 kW=0.000000 yearly=YearlyB daily=DailyB kVAR=0.000000
New Load.256174219_3 Bus1=256174219.3 Phases=1 kV=7.2169 kW=0.000000 yearly=YearlyC daily=DailyC kVAR=0.000000
New Load.255943849_1 Bus1=255943849.1 Phases=1 kV=7.2169 kW=0.000000 yearly=YearlyA daily=DailyA kVAR=0.000000
New Load.256161206_1 Bus1=256161206.1 Phases=1 kV=7.2169 kW=0.000000 yearly=YearlyA daily=DailyA kVAR=0.000000
New Load.624337558_1 Bus1=624337558.1 Phases=1 kV=7.2169 kW=0.000000 yearly=YearlyA daily=DailyA kVAR=0.000000
New Load.624337558_2 Bus1=624337558.2 Phases=1 kV=7.2169 kW=0.000000 yearly=YearlyB daily=DailyB kVAR=0.000000
New Load.624337558_3 Bus1=624337558.3 Phases=1 kV=7.2169 kW=0.000000 yearly=YearlyC daily=DailyC kVAR=0.000000
New Load.256169708_3 Bus1=256169708.3 Phases=1 kV=7.2169 kW=0.000000 yearly=YearlyC daily=DailyC kVAR=0.000000
New Load.256156918_1 Bus1=256156918.1 Phases=1 kV=7.2169 kW=0.000000 yearly=YearlyA daily=DailyA kVAR=0.000000
New Load.256156928_1 Bus1=256156928.1 Phases=1 kV=7.2169 kW=0.000000 yearly=YearlyA daily=DailyA kVAR=0.000000
New Load.260944087_3 Bus1=260944087.3 Phases=1 kV=7.2169 kW=0.000000 yearly=YearlyC daily=DailyC kVAR=0.000000
New Load.872031037_2 Bus1=872031037.2 Phases=1 kV=7.2169 kW=0.000000 yearly=YearlyB daily=DailyB kVAR=0.000000
New Load.256156869_1 Bus1=256156869.1 Phases=1 kV=7.2169 kW=0.000000 yearly=YearlyA daily=DailyA kVAR=0.000000
New Load.260361296_3 Bus1=260361296.3 Phases=1 kV=7.2169 kW=0.000000 yearly=YearlyC daily=DailyC kVAR=0.000000
New Load.256169423_2 Bus1=256169423.2 Phases=1 kV=7.2169 kW=0.000000 yearly=YearlyB daily=DailyB kVAR=0.000000
New Load.261054254_2 Bus1=261054254.2 Phases=1 kV=7.2169 kW=0.000000 yearly=YearlyB daily=DailyB kVAR=0.000000
New Load.256169626_3 Bus1=256169626.3 Phases=1 kV=7.2169 kW=0.000000 yearly=YearlyC daily=DailyC kVAR=0.000000
New Load.256156674_1 Bus1=256156674.1 Phases=1 kV=7.2169 kW=0.000000 yearly=YearlyA daily=DailyA kVAR=0.000000
New Load.260359047_3 Bus1=260359047.3 Phases=1 kV=7.2169 kW=0.000000 yearly=YearlyC daily=DailyC kVAR=0.000000
New Load.256170088_1 Bus1=256170088.1 Phases=1 kV=7.2169 kW=0.000000 yearly=YearlyA daily=DailyA kVAR=0.000000
New Load.259268627_3 Bus1=259268627.3 Phases=1 kV=7.2169 kW=0.000000 yearly=YearlyC daily=DailyC kVAR=0.000000
New Load.255943779_1 Bus1=255943779.1 Phases=1 kV=7.2169 kW=0.000000 yearly=YearlyA daily=DailyA kVAR=0.000000
New Load.260360057_3 Bus1=260360057.3 Phases=1 kV=7.2169 kW=0.000000 yearly=YearlyC daily=DailyC kVAR=0.000000
New Load.261115912_1 Bus1=261115912.1 Phases=1 kV=7.2169 kW=0.000000 yearly=YearlyA daily=DailyA kVAR=0.000000
New Load.256164531_1 Bus1=256164531.1 Phases=1 kV=7.2169 kW=0.000000 yearly=YearlyA daily=DailyA kVAR=0.000000
New Load.256160496_3 Bus1=256160496.3 Phases=1 kV=7.2169 kW=0.000000 yearly=YearlyC daily=DailyC kVAR=0.000000
New Load.256155682_1 Bus1=256155682.1 Phases=1 kV=7.2169 kW=0.000000 yearly=YearlyA daily=DailyA kVAR=0.000000
New Load.256164904_3 Bus1=256164904.3 Phases=1 kV=7.2169 kW=0.000000 yearly=YearlyC daily=DailyC kVAR=0.000000
New Load.256160503_3 Bus1=256160503.3 Phases=1 kV=7.2169 kW=0.000000 yearly=YearlyC daily=DailyC kVAR=0.000000
New Load.256164973_3 Bus1=256164973.3 Phases=1 kV=7.2169 kW=0.000000 yearly=YearlyC daily=DailyC kVAR=0.000000
...
